eclipse.preferences.version=1
encoding//QSWATPlus/DBUtils.py=utf-8
encoding//QSWATPlus/QSWATPlusMain.py=utf-8
encoding//QSWATPlus/QSWATTopology.py=utf-8
encoding//QSWATPlus/QSWATUtils.py=utf-8
encoding//QSWATPlus/TauDEMUtils.py=utf-8
encoding//QSWATPlus/dataInC.pyx=utf-8
encoding//QSWATPlus/floodplain.py=utf-8
encoding//QSWATPlus/globals.py=utf-8
encoding//QSWATPlus/hrus.py=utf-8
encoding//QSWATPlus/landscape.py=utf-8
encoding//QSWATPlus/ui_delineation.py=utf-8
encoding/test_qswatplus.py=utf-8
