
K
QSWATPlus/ui_delineation.py,b\d\bdfbfc95c5190d655dc210c5ead3d6e9a23e6217
J
QSWATPlus/QSWATPlusMain.py,2\c\2cc80b9df9ea70e16dd20e07722f324ba14fd86c
H
QSWATPlus/delineation.py,9\0\90063b52929566d0cf104fc325f57cd464b67923
F
QSWATPlus/drawshape.py,2\3\234fedb14fe48b126dc5e18272b42a295470d017
L
QSWATPlus/drawshapedialog.py,3\a\3a51e8778fd0326eacc21937bf601ddddf4a973d
I
QSWATPlus/ui_drawshape.py,3\9\3999845c4922e933885db048252f99c603658216
D
QSWATPlus/globals.py,2\d\2d4b30d508ccedef11a3154bb871186fe3a9692a